# total energy = -54.75574195 eV

CRYSTAL
PRIMVEC
      3.86527887     0.00000000     0.00000000
      0.00000000     3.86527887     0.00000000
      0.00000000     0.00000000     3.90393166
PRIMCOORD
4 1
Re      0.00000000     0.00000000     0.00000000     0.00000000     0.00000000     0.00000000
Re      1.93263944     1.93263944     0.00000000     0.00000000     0.00000000     0.00000000
Re      1.93263944     0.00000000     1.95196583     0.00000000     0.00000000     0.00000000
Re      0.00000000     1.93263944     1.95196583     0.00000000     0.00000000     0.00000000

