# total energy = -54.72421054 eV

CRYSTAL
PRIMVEC
      3.94258444     0.00000000     0.00000000
      0.00000000     3.86527887     0.00000000
      0.00000000     0.00000000     3.86527887
PRIMCOORD
4 1
Re      0.00000000     0.00000000     0.00000000     0.00000000     0.00000000     0.00000000
Re      1.97129222     1.93263944     0.00000000     0.00000000     0.00000000     0.00000000
Re      1.97129222     0.00000000     1.93263944     0.00000000     0.00000000     0.00000000
Re      0.00000000     1.93263944     1.93263944     0.00000000     0.00000000     0.00000000

